** Layout Netlist, pvs precompare
** 

.subckt sarafe_nsw CLKB ENL0<0> ENL0<1> ENL0<2> ENL1<0> ENL1<1> ENL1<2> ENL2<0> ENL2<1> ENL2<2> ENL3<0> ENL3<1> ENL3<2> ENL4<0> ENL4<1> ENL4<2> ENL5<0> ENL5<1> ENL5<2> ENL6<0> 
+ ENL6<1> ENL6<2> ENL7<0> ENL7<1> ENL7<2> ENR0<0> ENR0<1> ENR0<2> ENR1<0> ENR1<1> ENR1<2> ENR2<0> ENR2<1> ENR2<2> ENR3<0> ENR3<1> ENR3<2> ENR4<0> ENR4<1> ENR4<2> 
+ ENR5<0> ENR5<1> ENR5<2> ENR6<0> ENR6<1> ENR6<2> ENR7<0> ENR7<1> ENR7<2> INM INP OSM OSP OUTM OUTP VDD VOL<0> VOL<1> VOL<2> VOL<3> 
+ VOL<4> VOL<5> VOL<6> VOL<7> VOR<0> VOR<1> VOR<2> VOR<3> VOR<4> VOR<5> VOR<6> VOR<7> VREF<0> VREF<1> VREF<2> VSS 
MX84/X99/X9/X14/X3/M0 X84/X99/X9/6 X84/X99/X9/6 VSS VSS N1LVT L=1.8e-08 nf=1 nfin=4 m=1 
MX84/X99/X9/X14/X4/M0 VSS X84/X99/X9/6 X84/X99/X9/6 VSS N1LVT L=1.8e-08 nf=1 nfin=4 m=1 
MX84/X99/X9/X15/X3/M0 X84/X99/X9/7 X84/X99/X9/7 VSS VSS N1LVT L=1.8e-08 nf=1 nfin=4 m=1 
MX84/X99/X9/X15/X4/M0 VSS X84/X99/X9/7 X84/X99/X9/7 VSS N1LVT L=1.8e-08 nf=1 nfin=4 m=1 
MX84/X99/X10/X24/X3/M0 VOL<7> ENL7<0> VREF<0> VSS N1LVT L=1.8e-08 nf=1 nfin=4 m=1 
MX84/X99/X10/X24/X4/M0 VREF<0> ENL7<0> VOL<7> VSS N1LVT L=1.8e-08 nf=1 nfin=4 m=1 
MX84/X99/X10/X25/X3/M0 VOL<7> ENL7<0> VREF<0> VSS N1LVT L=1.8e-08 nf=1 nfin=4 m=1 
MX84/X99/X10/X25/X4/M0 VREF<0> ENL7<0> VOL<7> VSS N1LVT L=1.8e-08 nf=1 nfin=4 m=1 
MX84/X99/X10/X26/X3/M0 VOL<7> ENL7<0> VREF<0> VSS N1LVT L=1.8e-08 nf=1 nfin=4 m=1 
MX84/X99/X10/X26/X4/M0 VREF<0> ENL7<0> VOL<7> VSS N1LVT L=1.8e-08 nf=1 nfin=4 m=1 
MX84/X99/X10/X27/X3/M0 VOL<7> ENL7<0> VREF<0> VSS N1LVT L=1.8e-08 nf=1 nfin=4 m=1 
MX84/X99/X10/X27/X4/M0 VREF<0> ENL7<0> VOL<7> VSS N1LVT L=1.8e-08 nf=1 nfin=4 m=1 
MX84/X99/X10/X28/X3/M0 VOL<7> ENL7<0> VREF<0> VSS N1LVT L=1.8e-08 nf=1 nfin=4 m=1 
MX84/X99/X10/X28/X4/M0 VREF<0> ENL7<0> VOL<7> VSS N1LVT L=1.8e-08 nf=1 nfin=4 m=1 
MX84/X99/X10/X29/X3/M0 VOL<7> ENL7<0> VREF<0> VSS N1LVT L=1.8e-08 nf=1 nfin=4 m=1 
MX84/X99/X10/X29/X4/M0 VREF<0> ENL7<0> VOL<7> VSS N1LVT L=1.8e-08 nf=1 nfin=4 m=1 
MX84/X99/X10/X30/X3/M0 VOL<7> ENL7<0> VREF<0> VSS N1LVT L=1.8e-08 nf=1 nfin=4 m=1 
MX84/X99/X10/X30/X4/M0 VREF<0> ENL7<0> VOL<7> VSS N1LVT L=1.8e-08 nf=1 nfin=4 m=1 
MX84/X99/X10/X31/X3/M0 VOL<7> ENL7<0> VREF<0> VSS N1LVT L=1.8e-08 nf=1 nfin=4 m=1 
MX84/X99/X10/X31/X4/M0 VREF<0> ENL7<0> VOL<7> VSS N1LVT L=1.8e-08 nf=1 nfin=4 m=1 
MX84/X99/X11/X24/X3/M0 VOL<7> ENL7<1> VREF<1> VSS N1LVT L=1.8e-08 nf=1 nfin=4 m=1 
MX84/X99/X11/X24/X4/M0 VREF<1> ENL7<1> VOL<7> VSS N1LVT L=1.8e-08 nf=1 nfin=4 m=1 
MX84/X99/X11/X25/X3/M0 VOL<7> ENL7<1> VREF<1> VSS N1LVT L=1.8e-08 nf=1 nfin=4 m=1 
MX84/X99/X11/X25/X4/M0 VREF<1> ENL7<1> VOL<7> VSS N1LVT L=1.8e-08 nf=1 nfin=4 m=1 
MX84/X99/X11/X26/X3/M0 VOL<7> ENL7<1> VREF<1> VSS N1LVT L=1.8e-08 nf=1 nfin=4 m=1 
MX84/X99/X11/X26/X4/M0 VREF<1> ENL7<1> VOL<7> VSS N1LVT L=1.8e-08 nf=1 nfin=4 m=1 
MX84/X99/X11/X27/X3/M0 VOL<7> ENL7<1> VREF<1> VSS N1LVT L=1.8e-08 nf=1 nfin=4 m=1 
MX84/X99/X11/X27/X4/M0 VREF<1> ENL7<1> VOL<7> VSS N1LVT L=1.8e-08 nf=1 nfin=4 m=1 
MX84/X99/X11/X28/X3/M0 VOL<7> ENL7<1> VREF<1> VSS N1LVT L=1.8e-08 nf=1 nfin=4 m=1 
MX84/X99/X11/X28/X4/M0 VREF<1> ENL7<1> VOL<7> VSS N1LVT L=1.8e-08 nf=1 nfin=4 m=1 
MX84/X99/X11/X29/X3/M0 VOL<7> ENL7<1> VREF<1> VSS N1LVT L=1.8e-08 nf=1 nfin=4 m=1 
MX84/X99/X11/X29/X4/M0 VREF<1> ENL7<1> VOL<7> VSS N1LVT L=1.8e-08 nf=1 nfin=4 m=1 
MX84/X99/X11/X30/X3/M0 VOL<7> ENL7<1> VREF<1> VSS N1LVT L=1.8e-08 nf=1 nfin=4 m=1 
MX84/X99/X11/X30/X4/M0 VREF<1> ENL7<1> VOL<7> VSS N1LVT L=1.8e-08 nf=1 nfin=4 m=1 
MX84/X99/X11/X31/X3/M0 VOL<7> ENL7<1> VREF<1> VSS N1LVT L=1.8e-08 nf=1 nfin=4 m=1 
MX84/X99/X11/X31/X4/M0 VREF<1> ENL7<1> VOL<7> VSS N1LVT L=1.8e-08 nf=1 nfin=4 m=1 
MX84/X99/X12/X24/X3/M0 VOL<7> ENL7<2> VREF<2> VSS N1LVT L=1.8e-08 nf=1 nfin=4 m=1 
MX84/X99/X12/X24/X4/M0 VREF<2> ENL7<2> VOL<7> VSS N1LVT L=1.8e-08 nf=1 nfin=4 m=1 
MX84/X99/X12/X25/X3/M0 VOL<7> ENL7<2> VREF<2> VSS N1LVT L=1.8e-08 nf=1 nfin=4 m=1 
MX84/X99/X12/X25/X4/M0 VREF<2> ENL7<2> VOL<7> VSS N1LVT L=1.8e-08 nf=1 nfin=4 m=1 
MX84/X99/X12/X26/X3/M0 VOL<7> ENL7<2> VREF<2> VSS N1LVT L=1.8e-08 nf=1 nfin=4 m=1 
MX84/X99/X12/X26/X4/M0 VREF<2> ENL7<2> VOL<7> VSS N1LVT L=1.8e-08 nf=1 nfin=4 m=1 
MX84/X99/X12/X27/X3/M0 VOL<7> ENL7<2> VREF<2> VSS N1LVT L=1.8e-08 nf=1 nfin=4 m=1 
MX84/X99/X12/X27/X4/M0 VREF<2> ENL7<2> VOL<7> VSS N1LVT L=1.8e-08 nf=1 nfin=4 m=1 
MX84/X99/X12/X28/X3/M0 VOL<7> ENL7<2> VREF<2> VSS N1LVT L=1.8e-08 nf=1 nfin=4 m=1 
MX84/X99/X12/X28/X4/M0 VREF<2> ENL7<2> VOL<7> VSS N1LVT L=1.8e-08 nf=1 nfin=4 m=1 
MX84/X99/X12/X29/X3/M0 VOL<7> ENL7<2> VREF<2> VSS N1LVT L=1.8e-08 nf=1 nfin=4 m=1 
MX84/X99/X12/X29/X4/M0 VREF<2> ENL7<2> VOL<7> VSS N1LVT L=1.8e-08 nf=1 nfin=4 m=1 
MX84/X99/X12/X30/X3/M0 VOL<7> ENL7<2> VREF<2> VSS N1LVT L=1.8e-08 nf=1 nfin=4 m=1 
MX84/X99/X12/X30/X4/M0 VREF<2> ENL7<2> VOL<7> VSS N1LVT L=1.8e-08 nf=1 nfin=4 m=1 
MX84/X99/X12/X31/X3/M0 VOL<7> ENL7<2> VREF<2> VSS N1LVT L=1.8e-08 nf=1 nfin=4 m=1 
MX84/X99/X12/X31/X4/M0 VREF<2> ENL7<2> VOL<7> VSS N1LVT L=1.8e-08 nf=1 nfin=4 m=1 
MX84/X116/X12/X14/X3/M0 X84/X116/X12/6 X84/X116/X12/6 VSS VSS N1LVT L=1.8e-08 nf=1 nfin=4 m=1 
MX84/X116/X12/X14/X4/M0 VSS X84/X116/X12/6 X84/X116/X12/6 VSS N1LVT L=1.8e-08 nf=1 nfin=4 m=1 
MX84/X116/X12/X15/X3/M0 X84/X116/X12/7 X84/X116/X12/7 VSS VSS N1LVT L=1.8e-08 nf=1 nfin=4 m=1 
MX84/X116/X12/X15/X4/M0 VSS X84/X116/X12/7 X84/X116/X12/7 VSS N1LVT L=1.8e-08 nf=1 nfin=4 m=1 
MX84/X116/X13/X16/X3/M0 VOL<0> ENL0<0> VREF<0> VSS N1LVT L=1.8e-08 nf=1 nfin=4 m=1 
MX84/X116/X13/X16/X4/M0 VREF<0> ENL0<0> VOL<0> VSS N1LVT L=1.8e-08 nf=1 nfin=4 m=1 
MX84/X116/X13/X17/X3/M0 VOL<0> ENL0<0> VREF<0> VSS N1LVT L=1.8e-08 nf=1 nfin=4 m=1 
MX84/X116/X13/X17/X4/M0 VREF<0> ENL0<0> VOL<0> VSS N1LVT L=1.8e-08 nf=1 nfin=4 m=1 
MX84/X116/X14/X16/X3/M0 VOL<0> ENL0<1> VREF<1> VSS N1LVT L=1.8e-08 nf=1 nfin=4 m=1 
MX84/X116/X14/X16/X4/M0 VREF<1> ENL0<1> VOL<0> VSS N1LVT L=1.8e-08 nf=1 nfin=4 m=1 
MX84/X116/X14/X17/X3/M0 VOL<0> ENL0<1> VREF<1> VSS N1LVT L=1.8e-08 nf=1 nfin=4 m=1 
MX84/X116/X14/X17/X4/M0 VREF<1> ENL0<1> VOL<0> VSS N1LVT L=1.8e-08 nf=1 nfin=4 m=1 
MX84/X116/X15/X16/X3/M0 VOL<0> ENL0<2> VREF<2> VSS N1LVT L=1.8e-08 nf=1 nfin=4 m=1 
MX84/X116/X15/X16/X4/M0 VREF<2> ENL0<2> VOL<0> VSS N1LVT L=1.8e-08 nf=1 nfin=4 m=1 
MX84/X116/X15/X17/X3/M0 VOL<0> ENL0<2> VREF<2> VSS N1LVT L=1.8e-08 nf=1 nfin=4 m=1 
MX84/X116/X15/X17/X4/M0 VREF<2> ENL0<2> VOL<0> VSS N1LVT L=1.8e-08 nf=1 nfin=4 m=1 
MX84/X117/X12/X14/X3/M0 X84/X117/X12/6 X84/X117/X12/6 VSS VSS N1LVT L=1.8e-08 nf=1 nfin=4 m=1 
MX84/X117/X12/X14/X4/M0 VSS X84/X117/X12/6 X84/X117/X12/6 VSS N1LVT L=1.8e-08 nf=1 nfin=4 m=1 
MX84/X117/X12/X15/X3/M0 X84/X117/X12/7 X84/X117/X12/7 VSS VSS N1LVT L=1.8e-08 nf=1 nfin=4 m=1 
MX84/X117/X12/X15/X4/M0 VSS X84/X117/X12/7 X84/X117/X12/7 VSS N1LVT L=1.8e-08 nf=1 nfin=4 m=1 
MX84/X117/X13/X16/X3/M0 VOL<2> ENL2<0> VREF<0> VSS N1LVT L=1.8e-08 nf=1 nfin=4 m=1 
MX84/X117/X13/X16/X4/M0 VREF<0> ENL2<0> VOL<2> VSS N1LVT L=1.8e-08 nf=1 nfin=4 m=1 
MX84/X117/X13/X17/X3/M0 VOL<2> ENL2<0> VREF<0> VSS N1LVT L=1.8e-08 nf=1 nfin=4 m=1 
MX84/X117/X13/X17/X4/M0 VREF<0> ENL2<0> VOL<2> VSS N1LVT L=1.8e-08 nf=1 nfin=4 m=1 
MX84/X117/X14/X16/X3/M0 VOL<2> ENL2<1> VREF<1> VSS N1LVT L=1.8e-08 nf=1 nfin=4 m=1 
MX84/X117/X14/X16/X4/M0 VREF<1> ENL2<1> VOL<2> VSS N1LVT L=1.8e-08 nf=1 nfin=4 m=1 
MX84/X117/X14/X17/X3/M0 VOL<2> ENL2<1> VREF<1> VSS N1LVT L=1.8e-08 nf=1 nfin=4 m=1 
MX84/X117/X14/X17/X4/M0 VREF<1> ENL2<1> VOL<2> VSS N1LVT L=1.8e-08 nf=1 nfin=4 m=1 
MX84/X117/X15/X16/X3/M0 VOL<2> ENL2<2> VREF<2> VSS N1LVT L=1.8e-08 nf=1 nfin=4 m=1 
MX84/X117/X15/X16/X4/M0 VREF<2> ENL2<2> VOL<2> VSS N1LVT L=1.8e-08 nf=1 nfin=4 m=1 
MX84/X117/X15/X17/X3/M0 VOL<2> ENL2<2> VREF<2> VSS N1LVT L=1.8e-08 nf=1 nfin=4 m=1 
MX84/X117/X15/X17/X4/M0 VREF<2> ENL2<2> VOL<2> VSS N1LVT L=1.8e-08 nf=1 nfin=4 m=1 
MX84/X118/X12/X14/X3/M0 X84/X118/X12/6 X84/X118/X12/6 VSS VSS N1LVT L=1.8e-08 nf=1 nfin=4 m=1 
MX84/X118/X12/X14/X4/M0 VSS X84/X118/X12/6 X84/X118/X12/6 VSS N1LVT L=1.8e-08 nf=1 nfin=4 m=1 
MX84/X118/X12/X15/X3/M0 X84/X118/X12/7 X84/X118/X12/7 VSS VSS N1LVT L=1.8e-08 nf=1 nfin=4 m=1 
MX84/X118/X12/X15/X4/M0 VSS X84/X118/X12/7 X84/X118/X12/7 VSS N1LVT L=1.8e-08 nf=1 nfin=4 m=1 
MX84/X118/X13/X16/X3/M0 VOL<4> ENL4<0> VREF<0> VSS N1LVT L=1.8e-08 nf=1 nfin=4 m=1 
MX84/X118/X13/X16/X4/M0 VREF<0> ENL4<0> VOL<4> VSS N1LVT L=1.8e-08 nf=1 nfin=4 m=1 
MX84/X118/X13/X17/X3/M0 VOL<4> ENL4<0> VREF<0> VSS N1LVT L=1.8e-08 nf=1 nfin=4 m=1 
MX84/X118/X13/X17/X4/M0 VREF<0> ENL4<0> VOL<4> VSS N1LVT L=1.8e-08 nf=1 nfin=4 m=1 
MX84/X118/X14/X16/X3/M0 VOL<4> ENL4<1> VREF<1> VSS N1LVT L=1.8e-08 nf=1 nfin=4 m=1 
MX84/X118/X14/X16/X4/M0 VREF<1> ENL4<1> VOL<4> VSS N1LVT L=1.8e-08 nf=1 nfin=4 m=1 
MX84/X118/X14/X17/X3/M0 VOL<4> ENL4<1> VREF<1> VSS N1LVT L=1.8e-08 nf=1 nfin=4 m=1 
MX84/X118/X14/X17/X4/M0 VREF<1> ENL4<1> VOL<4> VSS N1LVT L=1.8e-08 nf=1 nfin=4 m=1 
MX84/X118/X15/X16/X3/M0 VOL<4> ENL4<2> VREF<2> VSS N1LVT L=1.8e-08 nf=1 nfin=4 m=1 
MX84/X118/X15/X16/X4/M0 VREF<2> ENL4<2> VOL<4> VSS N1LVT L=1.8e-08 nf=1 nfin=4 m=1 
MX84/X118/X15/X17/X3/M0 VOL<4> ENL4<2> VREF<2> VSS N1LVT L=1.8e-08 nf=1 nfin=4 m=1 
MX84/X118/X15/X17/X4/M0 VREF<2> ENL4<2> VOL<4> VSS N1LVT L=1.8e-08 nf=1 nfin=4 m=1 
MX84/X119/X12/X14/X3/M0 X84/X119/X12/6 X84/X119/X12/6 VSS VSS N1LVT L=1.8e-08 nf=1 nfin=4 m=1 
MX84/X119/X12/X14/X4/M0 VSS X84/X119/X12/6 X84/X119/X12/6 VSS N1LVT L=1.8e-08 nf=1 nfin=4 m=1 
MX84/X119/X12/X15/X3/M0 X84/X119/X12/7 X84/X119/X12/7 VSS VSS N1LVT L=1.8e-08 nf=1 nfin=4 m=1 
MX84/X119/X12/X15/X4/M0 VSS X84/X119/X12/7 X84/X119/X12/7 VSS N1LVT L=1.8e-08 nf=1 nfin=4 m=1 
MX84/X119/X13/X16/X3/M0 VOL<1> ENL1<0> VREF<0> VSS N1LVT L=1.8e-08 nf=1 nfin=4 m=1 
MX84/X119/X13/X16/X4/M0 VREF<0> ENL1<0> VOL<1> VSS N1LVT L=1.8e-08 nf=1 nfin=4 m=1 
MX84/X119/X13/X17/X3/M0 VOL<1> ENL1<0> VREF<0> VSS N1LVT L=1.8e-08 nf=1 nfin=4 m=1 
MX84/X119/X13/X17/X4/M0 VREF<0> ENL1<0> VOL<1> VSS N1LVT L=1.8e-08 nf=1 nfin=4 m=1 
MX84/X119/X14/X16/X3/M0 VOL<1> ENL1<1> VREF<1> VSS N1LVT L=1.8e-08 nf=1 nfin=4 m=1 
MX84/X119/X14/X16/X4/M0 VREF<1> ENL1<1> VOL<1> VSS N1LVT L=1.8e-08 nf=1 nfin=4 m=1 
MX84/X119/X14/X17/X3/M0 VOL<1> ENL1<1> VREF<1> VSS N1LVT L=1.8e-08 nf=1 nfin=4 m=1 
MX84/X119/X14/X17/X4/M0 VREF<1> ENL1<1> VOL<1> VSS N1LVT L=1.8e-08 nf=1 nfin=4 m=1 
MX84/X119/X15/X16/X3/M0 VOL<1> ENL1<2> VREF<2> VSS N1LVT L=1.8e-08 nf=1 nfin=4 m=1 
MX84/X119/X15/X16/X4/M0 VREF<2> ENL1<2> VOL<1> VSS N1LVT L=1.8e-08 nf=1 nfin=4 m=1 
MX84/X119/X15/X17/X3/M0 VOL<1> ENL1<2> VREF<2> VSS N1LVT L=1.8e-08 nf=1 nfin=4 m=1 
MX84/X119/X15/X17/X4/M0 VREF<2> ENL1<2> VOL<1> VSS N1LVT L=1.8e-08 nf=1 nfin=4 m=1 
MX84/X120/X12/X14/X3/M0 X84/X120/X12/6 X84/X120/X12/6 VSS VSS N1LVT L=1.8e-08 nf=1 nfin=4 m=1 
MX84/X120/X12/X14/X4/M0 VSS X84/X120/X12/6 X84/X120/X12/6 VSS N1LVT L=1.8e-08 nf=1 nfin=4 m=1 
MX84/X120/X12/X15/X3/M0 X84/X120/X12/7 X84/X120/X12/7 VSS VSS N1LVT L=1.8e-08 nf=1 nfin=4 m=1 
MX84/X120/X12/X15/X4/M0 VSS X84/X120/X12/7 X84/X120/X12/7 VSS N1LVT L=1.8e-08 nf=1 nfin=4 m=1 
MX84/X120/X13/X16/X3/M0 VOL<3> ENL3<0> VREF<0> VSS N1LVT L=1.8e-08 nf=1 nfin=4 m=1 
MX84/X120/X13/X16/X4/M0 VREF<0> ENL3<0> VOL<3> VSS N1LVT L=1.8e-08 nf=1 nfin=4 m=1 
MX84/X120/X13/X17/X3/M0 VOL<3> ENL3<0> VREF<0> VSS N1LVT L=1.8e-08 nf=1 nfin=4 m=1 
MX84/X120/X13/X17/X4/M0 VREF<0> ENL3<0> VOL<3> VSS N1LVT L=1.8e-08 nf=1 nfin=4 m=1 
MX84/X120/X14/X16/X3/M0 VOL<3> ENL3<1> VREF<1> VSS N1LVT L=1.8e-08 nf=1 nfin=4 m=1 
MX84/X120/X14/X16/X4/M0 VREF<1> ENL3<1> VOL<3> VSS N1LVT L=1.8e-08 nf=1 nfin=4 m=1 
MX84/X120/X14/X17/X3/M0 VOL<3> ENL3<1> VREF<1> VSS N1LVT L=1.8e-08 nf=1 nfin=4 m=1 
MX84/X120/X14/X17/X4/M0 VREF<1> ENL3<1> VOL<3> VSS N1LVT L=1.8e-08 nf=1 nfin=4 m=1 
MX84/X120/X15/X16/X3/M0 VOL<3> ENL3<2> VREF<2> VSS N1LVT L=1.8e-08 nf=1 nfin=4 m=1 
MX84/X120/X15/X16/X4/M0 VREF<2> ENL3<2> VOL<3> VSS N1LVT L=1.8e-08 nf=1 nfin=4 m=1 
MX84/X120/X15/X17/X3/M0 VOL<3> ENL3<2> VREF<2> VSS N1LVT L=1.8e-08 nf=1 nfin=4 m=1 
MX84/X120/X15/X17/X4/M0 VREF<2> ENL3<2> VOL<3> VSS N1LVT L=1.8e-08 nf=1 nfin=4 m=1 
MX84/X121/X12/X14/X3/M0 X84/X121/X12/6 X84/X121/X12/6 VSS VSS N1LVT L=1.8e-08 nf=1 nfin=4 m=1 
MX84/X121/X12/X14/X4/M0 VSS X84/X121/X12/6 X84/X121/X12/6 VSS N1LVT L=1.8e-08 nf=1 nfin=4 m=1 
MX84/X121/X12/X15/X3/M0 X84/X121/X12/7 X84/X121/X12/7 VSS VSS N1LVT L=1.8e-08 nf=1 nfin=4 m=1 
MX84/X121/X12/X15/X4/M0 VSS X84/X121/X12/7 X84/X121/X12/7 VSS N1LVT L=1.8e-08 nf=1 nfin=4 m=1 
MX84/X121/X13/X16/X3/M0 VOL<5> ENL5<0> VREF<0> VSS N1LVT L=1.8e-08 nf=1 nfin=4 m=1 
MX84/X121/X13/X16/X4/M0 VREF<0> ENL5<0> VOL<5> VSS N1LVT L=1.8e-08 nf=1 nfin=4 m=1 
MX84/X121/X13/X17/X3/M0 VOL<5> ENL5<0> VREF<0> VSS N1LVT L=1.8e-08 nf=1 nfin=4 m=1 
MX84/X121/X13/X17/X4/M0 VREF<0> ENL5<0> VOL<5> VSS N1LVT L=1.8e-08 nf=1 nfin=4 m=1 
MX84/X121/X14/X16/X3/M0 VOL<5> ENL5<1> VREF<1> VSS N1LVT L=1.8e-08 nf=1 nfin=4 m=1 
MX84/X121/X14/X16/X4/M0 VREF<1> ENL5<1> VOL<5> VSS N1LVT L=1.8e-08 nf=1 nfin=4 m=1 
MX84/X121/X14/X17/X3/M0 VOL<5> ENL5<1> VREF<1> VSS N1LVT L=1.8e-08 nf=1 nfin=4 m=1 
MX84/X121/X14/X17/X4/M0 VREF<1> ENL5<1> VOL<5> VSS N1LVT L=1.8e-08 nf=1 nfin=4 m=1 
MX84/X121/X15/X16/X3/M0 VOL<5> ENL5<2> VREF<2> VSS N1LVT L=1.8e-08 nf=1 nfin=4 m=1 
MX84/X121/X15/X16/X4/M0 VREF<2> ENL5<2> VOL<5> VSS N1LVT L=1.8e-08 nf=1 nfin=4 m=1 
MX84/X121/X15/X17/X3/M0 VOL<5> ENL5<2> VREF<2> VSS N1LVT L=1.8e-08 nf=1 nfin=4 m=1 
MX84/X121/X15/X17/X4/M0 VREF<2> ENL5<2> VOL<5> VSS N1LVT L=1.8e-08 nf=1 nfin=4 m=1 
MX84/X134/X17/X14/X3/M0 X84/X134/X17/6 X84/X134/X17/6 VSS VSS N1LVT L=1.8e-08 nf=1 nfin=4 m=1 
MX84/X134/X17/X14/X4/M0 VSS X84/X134/X17/6 X84/X134/X17/6 VSS N1LVT L=1.8e-08 nf=1 nfin=4 m=1 
MX84/X134/X17/X15/X3/M0 X84/X134/X17/7 X84/X134/X17/7 VSS VSS N1LVT L=1.8e-08 nf=1 nfin=4 m=1 
MX84/X134/X17/X15/X4/M0 VSS X84/X134/X17/7 X84/X134/X17/7 VSS N1LVT L=1.8e-08 nf=1 nfin=4 m=1 
MX84/X134/X21/X24/X3/M0 VOL<6> ENL6<0> VREF<0> VSS N1LVT L=1.8e-08 nf=1 nfin=4 m=1 
MX84/X134/X21/X24/X4/M0 VREF<0> ENL6<0> VOL<6> VSS N1LVT L=1.8e-08 nf=1 nfin=4 m=1 
MX84/X134/X21/X25/X3/M0 VOL<6> ENL6<0> VREF<0> VSS N1LVT L=1.8e-08 nf=1 nfin=4 m=1 
MX84/X134/X21/X25/X4/M0 VREF<0> ENL6<0> VOL<6> VSS N1LVT L=1.8e-08 nf=1 nfin=4 m=1 
MX84/X134/X21/X26/X3/M0 VOL<6> ENL6<0> VREF<0> VSS N1LVT L=1.8e-08 nf=1 nfin=4 m=1 
MX84/X134/X21/X26/X4/M0 VREF<0> ENL6<0> VOL<6> VSS N1LVT L=1.8e-08 nf=1 nfin=4 m=1 
MX84/X134/X21/X27/X3/M0 VOL<6> ENL6<0> VREF<0> VSS N1LVT L=1.8e-08 nf=1 nfin=4 m=1 
MX84/X134/X21/X27/X4/M0 VREF<0> ENL6<0> VOL<6> VSS N1LVT L=1.8e-08 nf=1 nfin=4 m=1 
MX84/X134/X22/X24/X3/M0 VOL<6> ENL6<1> VREF<1> VSS N1LVT L=1.8e-08 nf=1 nfin=4 m=1 
MX84/X134/X22/X24/X4/M0 VREF<1> ENL6<1> VOL<6> VSS N1LVT L=1.8e-08 nf=1 nfin=4 m=1 
MX84/X134/X22/X25/X3/M0 VOL<6> ENL6<1> VREF<1> VSS N1LVT L=1.8e-08 nf=1 nfin=4 m=1 
MX84/X134/X22/X25/X4/M0 VREF<1> ENL6<1> VOL<6> VSS N1LVT L=1.8e-08 nf=1 nfin=4 m=1 
MX84/X134/X22/X26/X3/M0 VOL<6> ENL6<1> VREF<1> VSS N1LVT L=1.8e-08 nf=1 nfin=4 m=1 
MX84/X134/X22/X26/X4/M0 VREF<1> ENL6<1> VOL<6> VSS N1LVT L=1.8e-08 nf=1 nfin=4 m=1 
MX84/X134/X22/X27/X3/M0 VOL<6> ENL6<1> VREF<1> VSS N1LVT L=1.8e-08 nf=1 nfin=4 m=1 
MX84/X134/X22/X27/X4/M0 VREF<1> ENL6<1> VOL<6> VSS N1LVT L=1.8e-08 nf=1 nfin=4 m=1 
MX84/X134/X23/X24/X3/M0 VOL<6> ENL6<2> VREF<2> VSS N1LVT L=1.8e-08 nf=1 nfin=4 m=1 
MX84/X134/X23/X24/X4/M0 VREF<2> ENL6<2> VOL<6> VSS N1LVT L=1.8e-08 nf=1 nfin=4 m=1 
MX84/X134/X23/X25/X3/M0 VOL<6> ENL6<2> VREF<2> VSS N1LVT L=1.8e-08 nf=1 nfin=4 m=1 
MX84/X134/X23/X25/X4/M0 VREF<2> ENL6<2> VOL<6> VSS N1LVT L=1.8e-08 nf=1 nfin=4 m=1 
MX84/X134/X23/X26/X3/M0 VOL<6> ENL6<2> VREF<2> VSS N1LVT L=1.8e-08 nf=1 nfin=4 m=1 
MX84/X134/X23/X26/X4/M0 VREF<2> ENL6<2> VOL<6> VSS N1LVT L=1.8e-08 nf=1 nfin=4 m=1 
MX84/X134/X23/X27/X3/M0 VOL<6> ENL6<2> VREF<2> VSS N1LVT L=1.8e-08 nf=1 nfin=4 m=1 
MX84/X134/X23/X27/X4/M0 VREF<2> ENL6<2> VOL<6> VSS N1LVT L=1.8e-08 nf=1 nfin=4 m=1 
MX85/X99/X9/X14/X3/M0 X85/X99/X9/6 X85/X99/X9/6 VSS VSS N1LVT L=1.8e-08 nf=1 nfin=4 m=1 
MX85/X99/X9/X14/X4/M0 VSS X85/X99/X9/6 X85/X99/X9/6 VSS N1LVT L=1.8e-08 nf=1 nfin=4 m=1 
MX85/X99/X9/X15/X3/M0 X85/X99/X9/7 X85/X99/X9/7 VSS VSS N1LVT L=1.8e-08 nf=1 nfin=4 m=1 
MX85/X99/X9/X15/X4/M0 VSS X85/X99/X9/7 X85/X99/X9/7 VSS N1LVT L=1.8e-08 nf=1 nfin=4 m=1 
MX85/X99/X10/X24/X3/M0 VOR<7> ENR7<0> VREF<0> VSS N1LVT L=1.8e-08 nf=1 nfin=4 m=1 
MX85/X99/X10/X24/X4/M0 VREF<0> ENR7<0> VOR<7> VSS N1LVT L=1.8e-08 nf=1 nfin=4 m=1 
MX85/X99/X10/X25/X3/M0 VOR<7> ENR7<0> VREF<0> VSS N1LVT L=1.8e-08 nf=1 nfin=4 m=1 
MX85/X99/X10/X25/X4/M0 VREF<0> ENR7<0> VOR<7> VSS N1LVT L=1.8e-08 nf=1 nfin=4 m=1 
MX85/X99/X10/X26/X3/M0 VOR<7> ENR7<0> VREF<0> VSS N1LVT L=1.8e-08 nf=1 nfin=4 m=1 
MX85/X99/X10/X26/X4/M0 VREF<0> ENR7<0> VOR<7> VSS N1LVT L=1.8e-08 nf=1 nfin=4 m=1 
MX85/X99/X10/X27/X3/M0 VOR<7> ENR7<0> VREF<0> VSS N1LVT L=1.8e-08 nf=1 nfin=4 m=1 
MX85/X99/X10/X27/X4/M0 VREF<0> ENR7<0> VOR<7> VSS N1LVT L=1.8e-08 nf=1 nfin=4 m=1 
MX85/X99/X10/X28/X3/M0 VOR<7> ENR7<0> VREF<0> VSS N1LVT L=1.8e-08 nf=1 nfin=4 m=1 
MX85/X99/X10/X28/X4/M0 VREF<0> ENR7<0> VOR<7> VSS N1LVT L=1.8e-08 nf=1 nfin=4 m=1 
MX85/X99/X10/X29/X3/M0 VOR<7> ENR7<0> VREF<0> VSS N1LVT L=1.8e-08 nf=1 nfin=4 m=1 
MX85/X99/X10/X29/X4/M0 VREF<0> ENR7<0> VOR<7> VSS N1LVT L=1.8e-08 nf=1 nfin=4 m=1 
MX85/X99/X10/X30/X3/M0 VOR<7> ENR7<0> VREF<0> VSS N1LVT L=1.8e-08 nf=1 nfin=4 m=1 
MX85/X99/X10/X30/X4/M0 VREF<0> ENR7<0> VOR<7> VSS N1LVT L=1.8e-08 nf=1 nfin=4 m=1 
MX85/X99/X10/X31/X3/M0 VOR<7> ENR7<0> VREF<0> VSS N1LVT L=1.8e-08 nf=1 nfin=4 m=1 
MX85/X99/X10/X31/X4/M0 VREF<0> ENR7<0> VOR<7> VSS N1LVT L=1.8e-08 nf=1 nfin=4 m=1 
MX85/X99/X11/X24/X3/M0 VOR<7> ENR7<1> VREF<1> VSS N1LVT L=1.8e-08 nf=1 nfin=4 m=1 
MX85/X99/X11/X24/X4/M0 VREF<1> ENR7<1> VOR<7> VSS N1LVT L=1.8e-08 nf=1 nfin=4 m=1 
MX85/X99/X11/X25/X3/M0 VOR<7> ENR7<1> VREF<1> VSS N1LVT L=1.8e-08 nf=1 nfin=4 m=1 
MX85/X99/X11/X25/X4/M0 VREF<1> ENR7<1> VOR<7> VSS N1LVT L=1.8e-08 nf=1 nfin=4 m=1 
MX85/X99/X11/X26/X3/M0 VOR<7> ENR7<1> VREF<1> VSS N1LVT L=1.8e-08 nf=1 nfin=4 m=1 
MX85/X99/X11/X26/X4/M0 VREF<1> ENR7<1> VOR<7> VSS N1LVT L=1.8e-08 nf=1 nfin=4 m=1 
MX85/X99/X11/X27/X3/M0 VOR<7> ENR7<1> VREF<1> VSS N1LVT L=1.8e-08 nf=1 nfin=4 m=1 
MX85/X99/X11/X27/X4/M0 VREF<1> ENR7<1> VOR<7> VSS N1LVT L=1.8e-08 nf=1 nfin=4 m=1 
MX85/X99/X11/X28/X3/M0 VOR<7> ENR7<1> VREF<1> VSS N1LVT L=1.8e-08 nf=1 nfin=4 m=1 
MX85/X99/X11/X28/X4/M0 VREF<1> ENR7<1> VOR<7> VSS N1LVT L=1.8e-08 nf=1 nfin=4 m=1 
MX85/X99/X11/X29/X3/M0 VOR<7> ENR7<1> VREF<1> VSS N1LVT L=1.8e-08 nf=1 nfin=4 m=1 
MX85/X99/X11/X29/X4/M0 VREF<1> ENR7<1> VOR<7> VSS N1LVT L=1.8e-08 nf=1 nfin=4 m=1 
MX85/X99/X11/X30/X3/M0 VOR<7> ENR7<1> VREF<1> VSS N1LVT L=1.8e-08 nf=1 nfin=4 m=1 
MX85/X99/X11/X30/X4/M0 VREF<1> ENR7<1> VOR<7> VSS N1LVT L=1.8e-08 nf=1 nfin=4 m=1 
MX85/X99/X11/X31/X3/M0 VOR<7> ENR7<1> VREF<1> VSS N1LVT L=1.8e-08 nf=1 nfin=4 m=1 
MX85/X99/X11/X31/X4/M0 VREF<1> ENR7<1> VOR<7> VSS N1LVT L=1.8e-08 nf=1 nfin=4 m=1 
MX85/X99/X12/X24/X3/M0 VOR<7> ENR7<2> VREF<2> VSS N1LVT L=1.8e-08 nf=1 nfin=4 m=1 
MX85/X99/X12/X24/X4/M0 VREF<2> ENR7<2> VOR<7> VSS N1LVT L=1.8e-08 nf=1 nfin=4 m=1 
MX85/X99/X12/X25/X3/M0 VOR<7> ENR7<2> VREF<2> VSS N1LVT L=1.8e-08 nf=1 nfin=4 m=1 
MX85/X99/X12/X25/X4/M0 VREF<2> ENR7<2> VOR<7> VSS N1LVT L=1.8e-08 nf=1 nfin=4 m=1 
MX85/X99/X12/X26/X3/M0 VOR<7> ENR7<2> VREF<2> VSS N1LVT L=1.8e-08 nf=1 nfin=4 m=1 
MX85/X99/X12/X26/X4/M0 VREF<2> ENR7<2> VOR<7> VSS N1LVT L=1.8e-08 nf=1 nfin=4 m=1 
MX85/X99/X12/X27/X3/M0 VOR<7> ENR7<2> VREF<2> VSS N1LVT L=1.8e-08 nf=1 nfin=4 m=1 
MX85/X99/X12/X27/X4/M0 VREF<2> ENR7<2> VOR<7> VSS N1LVT L=1.8e-08 nf=1 nfin=4 m=1 
MX85/X99/X12/X28/X3/M0 VOR<7> ENR7<2> VREF<2> VSS N1LVT L=1.8e-08 nf=1 nfin=4 m=1 
MX85/X99/X12/X28/X4/M0 VREF<2> ENR7<2> VOR<7> VSS N1LVT L=1.8e-08 nf=1 nfin=4 m=1 
MX85/X99/X12/X29/X3/M0 VOR<7> ENR7<2> VREF<2> VSS N1LVT L=1.8e-08 nf=1 nfin=4 m=1 
MX85/X99/X12/X29/X4/M0 VREF<2> ENR7<2> VOR<7> VSS N1LVT L=1.8e-08 nf=1 nfin=4 m=1 
MX85/X99/X12/X30/X3/M0 VOR<7> ENR7<2> VREF<2> VSS N1LVT L=1.8e-08 nf=1 nfin=4 m=1 
MX85/X99/X12/X30/X4/M0 VREF<2> ENR7<2> VOR<7> VSS N1LVT L=1.8e-08 nf=1 nfin=4 m=1 
MX85/X99/X12/X31/X3/M0 VOR<7> ENR7<2> VREF<2> VSS N1LVT L=1.8e-08 nf=1 nfin=4 m=1 
MX85/X99/X12/X31/X4/M0 VREF<2> ENR7<2> VOR<7> VSS N1LVT L=1.8e-08 nf=1 nfin=4 m=1 
MX85/X116/X12/X14/X3/M0 X85/X116/X12/6 X85/X116/X12/6 VSS VSS N1LVT L=1.8e-08 nf=1 nfin=4 m=1 
MX85/X116/X12/X14/X4/M0 VSS X85/X116/X12/6 X85/X116/X12/6 VSS N1LVT L=1.8e-08 nf=1 nfin=4 m=1 
MX85/X116/X12/X15/X3/M0 X85/X116/X12/7 X85/X116/X12/7 VSS VSS N1LVT L=1.8e-08 nf=1 nfin=4 m=1 
MX85/X116/X12/X15/X4/M0 VSS X85/X116/X12/7 X85/X116/X12/7 VSS N1LVT L=1.8e-08 nf=1 nfin=4 m=1 
MX85/X116/X13/X16/X3/M0 VOR<0> ENR0<0> VREF<0> VSS N1LVT L=1.8e-08 nf=1 nfin=4 m=1 
MX85/X116/X13/X16/X4/M0 VREF<0> ENR0<0> VOR<0> VSS N1LVT L=1.8e-08 nf=1 nfin=4 m=1 
MX85/X116/X13/X17/X3/M0 VOR<0> ENR0<0> VREF<0> VSS N1LVT L=1.8e-08 nf=1 nfin=4 m=1 
MX85/X116/X13/X17/X4/M0 VREF<0> ENR0<0> VOR<0> VSS N1LVT L=1.8e-08 nf=1 nfin=4 m=1 
MX85/X116/X14/X16/X3/M0 VOR<0> ENR0<1> VREF<1> VSS N1LVT L=1.8e-08 nf=1 nfin=4 m=1 
MX85/X116/X14/X16/X4/M0 VREF<1> ENR0<1> VOR<0> VSS N1LVT L=1.8e-08 nf=1 nfin=4 m=1 
MX85/X116/X14/X17/X3/M0 VOR<0> ENR0<1> VREF<1> VSS N1LVT L=1.8e-08 nf=1 nfin=4 m=1 
MX85/X116/X14/X17/X4/M0 VREF<1> ENR0<1> VOR<0> VSS N1LVT L=1.8e-08 nf=1 nfin=4 m=1 
MX85/X116/X15/X16/X3/M0 VOR<0> ENR0<2> VREF<2> VSS N1LVT L=1.8e-08 nf=1 nfin=4 m=1 
MX85/X116/X15/X16/X4/M0 VREF<2> ENR0<2> VOR<0> VSS N1LVT L=1.8e-08 nf=1 nfin=4 m=1 
MX85/X116/X15/X17/X3/M0 VOR<0> ENR0<2> VREF<2> VSS N1LVT L=1.8e-08 nf=1 nfin=4 m=1 
MX85/X116/X15/X17/X4/M0 VREF<2> ENR0<2> VOR<0> VSS N1LVT L=1.8e-08 nf=1 nfin=4 m=1 
MX85/X117/X12/X14/X3/M0 X85/X117/X12/6 X85/X117/X12/6 VSS VSS N1LVT L=1.8e-08 nf=1 nfin=4 m=1 
MX85/X117/X12/X14/X4/M0 VSS X85/X117/X12/6 X85/X117/X12/6 VSS N1LVT L=1.8e-08 nf=1 nfin=4 m=1 
MX85/X117/X12/X15/X3/M0 X85/X117/X12/7 X85/X117/X12/7 VSS VSS N1LVT L=1.8e-08 nf=1 nfin=4 m=1 
MX85/X117/X12/X15/X4/M0 VSS X85/X117/X12/7 X85/X117/X12/7 VSS N1LVT L=1.8e-08 nf=1 nfin=4 m=1 
MX85/X117/X13/X16/X3/M0 VOR<2> ENR2<0> VREF<0> VSS N1LVT L=1.8e-08 nf=1 nfin=4 m=1 
MX85/X117/X13/X16/X4/M0 VREF<0> ENR2<0> VOR<2> VSS N1LVT L=1.8e-08 nf=1 nfin=4 m=1 
MX85/X117/X13/X17/X3/M0 VOR<2> ENR2<0> VREF<0> VSS N1LVT L=1.8e-08 nf=1 nfin=4 m=1 
MX85/X117/X13/X17/X4/M0 VREF<0> ENR2<0> VOR<2> VSS N1LVT L=1.8e-08 nf=1 nfin=4 m=1 
MX85/X117/X14/X16/X3/M0 VOR<2> ENR2<1> VREF<1> VSS N1LVT L=1.8e-08 nf=1 nfin=4 m=1 
MX85/X117/X14/X16/X4/M0 VREF<1> ENR2<1> VOR<2> VSS N1LVT L=1.8e-08 nf=1 nfin=4 m=1 
MX85/X117/X14/X17/X3/M0 VOR<2> ENR2<1> VREF<1> VSS N1LVT L=1.8e-08 nf=1 nfin=4 m=1 
MX85/X117/X14/X17/X4/M0 VREF<1> ENR2<1> VOR<2> VSS N1LVT L=1.8e-08 nf=1 nfin=4 m=1 
MX85/X117/X15/X16/X3/M0 VOR<2> ENR2<2> VREF<2> VSS N1LVT L=1.8e-08 nf=1 nfin=4 m=1 
MX85/X117/X15/X16/X4/M0 VREF<2> ENR2<2> VOR<2> VSS N1LVT L=1.8e-08 nf=1 nfin=4 m=1 
MX85/X117/X15/X17/X3/M0 VOR<2> ENR2<2> VREF<2> VSS N1LVT L=1.8e-08 nf=1 nfin=4 m=1 
MX85/X117/X15/X17/X4/M0 VREF<2> ENR2<2> VOR<2> VSS N1LVT L=1.8e-08 nf=1 nfin=4 m=1 
MX85/X118/X12/X14/X3/M0 X85/X118/X12/6 X85/X118/X12/6 VSS VSS N1LVT L=1.8e-08 nf=1 nfin=4 m=1 
MX85/X118/X12/X14/X4/M0 VSS X85/X118/X12/6 X85/X118/X12/6 VSS N1LVT L=1.8e-08 nf=1 nfin=4 m=1 
MX85/X118/X12/X15/X3/M0 X85/X118/X12/7 X85/X118/X12/7 VSS VSS N1LVT L=1.8e-08 nf=1 nfin=4 m=1 
MX85/X118/X12/X15/X4/M0 VSS X85/X118/X12/7 X85/X118/X12/7 VSS N1LVT L=1.8e-08 nf=1 nfin=4 m=1 
MX85/X118/X13/X16/X3/M0 VOR<4> ENR4<0> VREF<0> VSS N1LVT L=1.8e-08 nf=1 nfin=4 m=1 
MX85/X118/X13/X16/X4/M0 VREF<0> ENR4<0> VOR<4> VSS N1LVT L=1.8e-08 nf=1 nfin=4 m=1 
MX85/X118/X13/X17/X3/M0 VOR<4> ENR4<0> VREF<0> VSS N1LVT L=1.8e-08 nf=1 nfin=4 m=1 
MX85/X118/X13/X17/X4/M0 VREF<0> ENR4<0> VOR<4> VSS N1LVT L=1.8e-08 nf=1 nfin=4 m=1 
MX85/X118/X14/X16/X3/M0 VOR<4> ENR4<1> VREF<1> VSS N1LVT L=1.8e-08 nf=1 nfin=4 m=1 
MX85/X118/X14/X16/X4/M0 VREF<1> ENR4<1> VOR<4> VSS N1LVT L=1.8e-08 nf=1 nfin=4 m=1 
MX85/X118/X14/X17/X3/M0 VOR<4> ENR4<1> VREF<1> VSS N1LVT L=1.8e-08 nf=1 nfin=4 m=1 
MX85/X118/X14/X17/X4/M0 VREF<1> ENR4<1> VOR<4> VSS N1LVT L=1.8e-08 nf=1 nfin=4 m=1 
MX85/X118/X15/X16/X3/M0 VOR<4> ENR4<2> VREF<2> VSS N1LVT L=1.8e-08 nf=1 nfin=4 m=1 
MX85/X118/X15/X16/X4/M0 VREF<2> ENR4<2> VOR<4> VSS N1LVT L=1.8e-08 nf=1 nfin=4 m=1 
MX85/X118/X15/X17/X3/M0 VOR<4> ENR4<2> VREF<2> VSS N1LVT L=1.8e-08 nf=1 nfin=4 m=1 
MX85/X118/X15/X17/X4/M0 VREF<2> ENR4<2> VOR<4> VSS N1LVT L=1.8e-08 nf=1 nfin=4 m=1 
MX85/X119/X12/X14/X3/M0 X85/X119/X12/6 X85/X119/X12/6 VSS VSS N1LVT L=1.8e-08 nf=1 nfin=4 m=1 
MX85/X119/X12/X14/X4/M0 VSS X85/X119/X12/6 X85/X119/X12/6 VSS N1LVT L=1.8e-08 nf=1 nfin=4 m=1 
MX85/X119/X12/X15/X3/M0 X85/X119/X12/7 X85/X119/X12/7 VSS VSS N1LVT L=1.8e-08 nf=1 nfin=4 m=1 
MX85/X119/X12/X15/X4/M0 VSS X85/X119/X12/7 X85/X119/X12/7 VSS N1LVT L=1.8e-08 nf=1 nfin=4 m=1 
MX85/X119/X13/X16/X3/M0 VOR<1> ENR1<0> VREF<0> VSS N1LVT L=1.8e-08 nf=1 nfin=4 m=1 
MX85/X119/X13/X16/X4/M0 VREF<0> ENR1<0> VOR<1> VSS N1LVT L=1.8e-08 nf=1 nfin=4 m=1 
MX85/X119/X13/X17/X3/M0 VOR<1> ENR1<0> VREF<0> VSS N1LVT L=1.8e-08 nf=1 nfin=4 m=1 
MX85/X119/X13/X17/X4/M0 VREF<0> ENR1<0> VOR<1> VSS N1LVT L=1.8e-08 nf=1 nfin=4 m=1 
MX85/X119/X14/X16/X3/M0 VOR<1> ENR1<1> VREF<1> VSS N1LVT L=1.8e-08 nf=1 nfin=4 m=1 
MX85/X119/X14/X16/X4/M0 VREF<1> ENR1<1> VOR<1> VSS N1LVT L=1.8e-08 nf=1 nfin=4 m=1 
MX85/X119/X14/X17/X3/M0 VOR<1> ENR1<1> VREF<1> VSS N1LVT L=1.8e-08 nf=1 nfin=4 m=1 
MX85/X119/X14/X17/X4/M0 VREF<1> ENR1<1> VOR<1> VSS N1LVT L=1.8e-08 nf=1 nfin=4 m=1 
MX85/X119/X15/X16/X3/M0 VOR<1> ENR1<2> VREF<2> VSS N1LVT L=1.8e-08 nf=1 nfin=4 m=1 
MX85/X119/X15/X16/X4/M0 VREF<2> ENR1<2> VOR<1> VSS N1LVT L=1.8e-08 nf=1 nfin=4 m=1 
MX85/X119/X15/X17/X3/M0 VOR<1> ENR1<2> VREF<2> VSS N1LVT L=1.8e-08 nf=1 nfin=4 m=1 
MX85/X119/X15/X17/X4/M0 VREF<2> ENR1<2> VOR<1> VSS N1LVT L=1.8e-08 nf=1 nfin=4 m=1 
MX85/X120/X12/X14/X3/M0 X85/X120/X12/6 X85/X120/X12/6 VSS VSS N1LVT L=1.8e-08 nf=1 nfin=4 m=1 
MX85/X120/X12/X14/X4/M0 VSS X85/X120/X12/6 X85/X120/X12/6 VSS N1LVT L=1.8e-08 nf=1 nfin=4 m=1 
MX85/X120/X12/X15/X3/M0 X85/X120/X12/7 X85/X120/X12/7 VSS VSS N1LVT L=1.8e-08 nf=1 nfin=4 m=1 
MX85/X120/X12/X15/X4/M0 VSS X85/X120/X12/7 X85/X120/X12/7 VSS N1LVT L=1.8e-08 nf=1 nfin=4 m=1 
MX85/X120/X13/X16/X3/M0 VOR<3> ENR3<0> VREF<0> VSS N1LVT L=1.8e-08 nf=1 nfin=4 m=1 
MX85/X120/X13/X16/X4/M0 VREF<0> ENR3<0> VOR<3> VSS N1LVT L=1.8e-08 nf=1 nfin=4 m=1 
MX85/X120/X13/X17/X3/M0 VOR<3> ENR3<0> VREF<0> VSS N1LVT L=1.8e-08 nf=1 nfin=4 m=1 
MX85/X120/X13/X17/X4/M0 VREF<0> ENR3<0> VOR<3> VSS N1LVT L=1.8e-08 nf=1 nfin=4 m=1 
MX85/X120/X14/X16/X3/M0 VOR<3> ENR3<1> VREF<1> VSS N1LVT L=1.8e-08 nf=1 nfin=4 m=1 
MX85/X120/X14/X16/X4/M0 VREF<1> ENR3<1> VOR<3> VSS N1LVT L=1.8e-08 nf=1 nfin=4 m=1 
MX85/X120/X14/X17/X3/M0 VOR<3> ENR3<1> VREF<1> VSS N1LVT L=1.8e-08 nf=1 nfin=4 m=1 
MX85/X120/X14/X17/X4/M0 VREF<1> ENR3<1> VOR<3> VSS N1LVT L=1.8e-08 nf=1 nfin=4 m=1 
MX85/X120/X15/X16/X3/M0 VOR<3> ENR3<2> VREF<2> VSS N1LVT L=1.8e-08 nf=1 nfin=4 m=1 
MX85/X120/X15/X16/X4/M0 VREF<2> ENR3<2> VOR<3> VSS N1LVT L=1.8e-08 nf=1 nfin=4 m=1 
MX85/X120/X15/X17/X3/M0 VOR<3> ENR3<2> VREF<2> VSS N1LVT L=1.8e-08 nf=1 nfin=4 m=1 
MX85/X120/X15/X17/X4/M0 VREF<2> ENR3<2> VOR<3> VSS N1LVT L=1.8e-08 nf=1 nfin=4 m=1 
MX85/X121/X12/X14/X3/M0 X85/X121/X12/6 X85/X121/X12/6 VSS VSS N1LVT L=1.8e-08 nf=1 nfin=4 m=1 
MX85/X121/X12/X14/X4/M0 VSS X85/X121/X12/6 X85/X121/X12/6 VSS N1LVT L=1.8e-08 nf=1 nfin=4 m=1 
MX85/X121/X12/X15/X3/M0 X85/X121/X12/7 X85/X121/X12/7 VSS VSS N1LVT L=1.8e-08 nf=1 nfin=4 m=1 
MX85/X121/X12/X15/X4/M0 VSS X85/X121/X12/7 X85/X121/X12/7 VSS N1LVT L=1.8e-08 nf=1 nfin=4 m=1 
MX85/X121/X13/X16/X3/M0 VOR<5> ENR5<0> VREF<0> VSS N1LVT L=1.8e-08 nf=1 nfin=4 m=1 
MX85/X121/X13/X16/X4/M0 VREF<0> ENR5<0> VOR<5> VSS N1LVT L=1.8e-08 nf=1 nfin=4 m=1 
MX85/X121/X13/X17/X3/M0 VOR<5> ENR5<0> VREF<0> VSS N1LVT L=1.8e-08 nf=1 nfin=4 m=1 
MX85/X121/X13/X17/X4/M0 VREF<0> ENR5<0> VOR<5> VSS N1LVT L=1.8e-08 nf=1 nfin=4 m=1 
MX85/X121/X14/X16/X3/M0 VOR<5> ENR5<1> VREF<1> VSS N1LVT L=1.8e-08 nf=1 nfin=4 m=1 
MX85/X121/X14/X16/X4/M0 VREF<1> ENR5<1> VOR<5> VSS N1LVT L=1.8e-08 nf=1 nfin=4 m=1 
MX85/X121/X14/X17/X3/M0 VOR<5> ENR5<1> VREF<1> VSS N1LVT L=1.8e-08 nf=1 nfin=4 m=1 
MX85/X121/X14/X17/X4/M0 VREF<1> ENR5<1> VOR<5> VSS N1LVT L=1.8e-08 nf=1 nfin=4 m=1 
MX85/X121/X15/X16/X3/M0 VOR<5> ENR5<2> VREF<2> VSS N1LVT L=1.8e-08 nf=1 nfin=4 m=1 
MX85/X121/X15/X16/X4/M0 VREF<2> ENR5<2> VOR<5> VSS N1LVT L=1.8e-08 nf=1 nfin=4 m=1 
MX85/X121/X15/X17/X3/M0 VOR<5> ENR5<2> VREF<2> VSS N1LVT L=1.8e-08 nf=1 nfin=4 m=1 
MX85/X121/X15/X17/X4/M0 VREF<2> ENR5<2> VOR<5> VSS N1LVT L=1.8e-08 nf=1 nfin=4 m=1 
MX85/X134/X17/X14/X3/M0 X85/X134/X17/6 X85/X134/X17/6 VSS VSS N1LVT L=1.8e-08 nf=1 nfin=4 m=1 
MX85/X134/X17/X14/X4/M0 VSS X85/X134/X17/6 X85/X134/X17/6 VSS N1LVT L=1.8e-08 nf=1 nfin=4 m=1 
MX85/X134/X17/X15/X3/M0 X85/X134/X17/7 X85/X134/X17/7 VSS VSS N1LVT L=1.8e-08 nf=1 nfin=4 m=1 
MX85/X134/X17/X15/X4/M0 VSS X85/X134/X17/7 X85/X134/X17/7 VSS N1LVT L=1.8e-08 nf=1 nfin=4 m=1 
MX85/X134/X21/X24/X3/M0 VOR<6> ENR6<0> VREF<0> VSS N1LVT L=1.8e-08 nf=1 nfin=4 m=1 
MX85/X134/X21/X24/X4/M0 VREF<0> ENR6<0> VOR<6> VSS N1LVT L=1.8e-08 nf=1 nfin=4 m=1 
MX85/X134/X21/X25/X3/M0 VOR<6> ENR6<0> VREF<0> VSS N1LVT L=1.8e-08 nf=1 nfin=4 m=1 
MX85/X134/X21/X25/X4/M0 VREF<0> ENR6<0> VOR<6> VSS N1LVT L=1.8e-08 nf=1 nfin=4 m=1 
MX85/X134/X21/X26/X3/M0 VOR<6> ENR6<0> VREF<0> VSS N1LVT L=1.8e-08 nf=1 nfin=4 m=1 
MX85/X134/X21/X26/X4/M0 VREF<0> ENR6<0> VOR<6> VSS N1LVT L=1.8e-08 nf=1 nfin=4 m=1 
MX85/X134/X21/X27/X3/M0 VOR<6> ENR6<0> VREF<0> VSS N1LVT L=1.8e-08 nf=1 nfin=4 m=1 
MX85/X134/X21/X27/X4/M0 VREF<0> ENR6<0> VOR<6> VSS N1LVT L=1.8e-08 nf=1 nfin=4 m=1 
MX85/X134/X22/X24/X3/M0 VOR<6> ENR6<1> VREF<1> VSS N1LVT L=1.8e-08 nf=1 nfin=4 m=1 
MX85/X134/X22/X24/X4/M0 VREF<1> ENR6<1> VOR<6> VSS N1LVT L=1.8e-08 nf=1 nfin=4 m=1 
MX85/X134/X22/X25/X3/M0 VOR<6> ENR6<1> VREF<1> VSS N1LVT L=1.8e-08 nf=1 nfin=4 m=1 
MX85/X134/X22/X25/X4/M0 VREF<1> ENR6<1> VOR<6> VSS N1LVT L=1.8e-08 nf=1 nfin=4 m=1 
MX85/X134/X22/X26/X3/M0 VOR<6> ENR6<1> VREF<1> VSS N1LVT L=1.8e-08 nf=1 nfin=4 m=1 
MX85/X134/X22/X26/X4/M0 VREF<1> ENR6<1> VOR<6> VSS N1LVT L=1.8e-08 nf=1 nfin=4 m=1 
MX85/X134/X22/X27/X3/M0 VOR<6> ENR6<1> VREF<1> VSS N1LVT L=1.8e-08 nf=1 nfin=4 m=1 